/*--------------------------------*- C++ -*----------------------------------*\
  =========                 |
  \\      /  F ield         | OpenFOAM: The Open Source CFD Toolbox
   \\    /   O peration     | Website:  https://openfoam.org
    \\  /    A nd           | Version:  9
     \\/     M anipulation  |
\*---------------------------------------------------------------------------*/
FoamFile
{
    format      ascii;
    class       dictionary;
    location    "constant/solid";
    object      thermophysicalProperties;
}
// * * * * * * * * * * * * * * * * * * * * * * * * * * * * * * * * * * * * * //
// Import solid properties:
solidrho $RHO_s;
solidcp $SolidCP;
solidk $SolidK;
solidmw $SolidMW;

thermoType
{
    type            heSolidThermo;
    mixture         pureMixture;
    transport       constIso;
    thermo          eConst;
    equationOfState rhoConst;
    specie          specie;
    energy          sensibleInternalEnergy;
}

mixture
{
    // Stainless Steel

    specie
    {
        molWeight       $solidmw;
    }
    equationOfState
    {
        rho             $solidrho;
    }
    transport
    {
        kappa           $solidk;
    }
    thermodynamics
    {
        Hf              0;
        Cv              $solidcp;
    }
}

// ************************************************************************* //
